<?xml version="1.0" encoding="UTF-8"?>

<!-- generated on 2026-07-08 12:48:36.171076 by Eclipse SUMO randomTrips.py v1_27_1+0000-7717f2379d9
<configuration>
    <net-file value="network/rajkot_pilot.net.xml"/>
    <route-file value="demand/baseline.rou.xml"/>
    <fringe-factor value="5"/>
    <period value="3.0"/>
</configuration>
-->

<!-- generated on 2026-07-08T12:48:35.936334+05:30 by Eclipse SUMO duarouter 1.27.1
<duarouterConfiguration xmlns:xsi="http://www.w3.org/2001/XMLSchema-instance" xsi:noNamespaceSchemaLocation="http://sumo.dlr.de/xsd/duarouterConfiguration.xsd">

    <input>
        <net-file value="network/rajkot_pilot.net.xml"/>
        <route-files value="trips.trips.xml"/>
    </input>

    <output>
        <output-file value="demand/baseline.rou.xml"/>
        <alternatives-output value="NUL"/>
    </output>

    <processing>
        <routing-threads value="6"/>
    </processing>

    <time>
        <begin value="0.0"/>
        <end value="3600.0"/>
    </time>

    <report>
        <no-warnings value="true"/>
        <ignore-errors value="true"/>
        <no-step-log value="true"/>
    </report>

</duarouterConfiguration>
-->

<routes xmlns:xsi="http://www.w3.org/2001/XMLSchema-instance" xsi:noNamespaceSchemaLocation="http://sumo.dlr.de/xsd/routes_file.xsd">
    <vehicle id="0" depart="0.00">
        <route edges="374201283#0 374201283#1 374234836#0 374234836#1 374234832#0 374234832#1 374234832#2 374234832#3 1281362476#1 1281362476#2 1281362476#3 1316835744 372937873#0 372937873#2 372937873#3 372937873#4 372937873#5 -1283554171"/>
    </vehicle>
    <vehicle id="1" depart="3.00">
        <route edges="-892888700#1 -892888700#0 -1202701966 372823723#4 -892888690#2 -892888690#1 -892888690#0"/>
    </vehicle>
    <vehicle id="2" depart="6.00">
        <route edges="892674602#0 892674602#1 892999552#3 892999552#4 892999552#5 892999552#6 892999552#7 892999552#8 372823723#0 372823723#2 372823723#4 372823723#6 372823723#8 372823723#10 372823723#11 372823723#12 374234832#1 374234832#2 374234832#3 1281362476#1 1281362476#2 1281362476#3 1316835744 372937873#0 372937873#2 372937873#3 372937873#4 372937873#5 892255097#0 892255097#1 892255097#2 892255097#3 684405687#1"/>
    </vehicle>
    <vehicle id="3" depart="9.00">
        <route edges="894104303#0 894104306#3 372822596#2 372822596#3 44506728#4 894542513#1 894542513#2 894542513#3 894542513#4 894542513#5 894542513#6 894542513#7 894542513#8 894542513#9 1281358762#1 1281358763 1281362475#0 1281362475#1 1281362476#1 1281362476#2 1281362476#3 1316835744 372937873#0 372937873#2 372937873#3 372937873#4 372937873#5 372937873#7 372937873#8 -372937851#5 -372937851#4"/>
    </vehicle>
    <vehicle id="4" depart="12.00">
        <route edges="-894104964#1 -894104965#0 684405678#3 684405678#4 684405678#5 684405678#6 684405678#7 226987816#0 226987816#1 226987816#2 226987816#3 226987816#4 226987816#5 374234836#3 374234836#4 374234836#5 374234836#6 374234836#0 -892888696 -892888697 -892888692 -372823724#2 -372823724#1 -372823724#0 -1316073094 -1316073093#1 -1316073093#0"/>
    </vehicle>
    <vehicle id="5" depart="15.00">
        <route edges="-892255093#1 -892255093#0 -372937873#2 1281364193#0 1281364193#1 1281364193#3 -372937886#7 -1282443564 1282443558#1"/>
    </vehicle>
    <vehicle id="6" depart="18.00">
        <route edges="-1282443559 -892249439#1 -892249439#0 372937886#6 372937886#7 1281364193#4 -1281364194 1281358762#1 1281358763 1281362475#0 1281362475#1 1281362476#1 1281362476#2 1281362476#3 1316835744 372937873#0 372937873#2 372937873#3 372937873#4 372937873#5 372937873#7 372937873#8 -372937851#5 -372937851#4 -372937851#3 -372937851#2 -372937881#2 -892259194"/>
    </vehicle>
    <vehicle id="7" depart="21.00">
        <route edges="44506728#1 44506728#2 44506728#3 44506728#4 -372821884#10 -372821884#8 -372821884#7 -372821884#6 -372821884#5 -1282441061 892192176 892192178#0 1336756355"/>
    </vehicle>
    <vehicle id="8" depart="24.00">
        <route edges="-892255097#1 -892255097#0 -372937873#5 -372937873#4 -372937873#3 -372937873#2 -372937873#0 -1316835744 684405685#0 684405685#1 684405685#2 684405685#3 372937850#0"/>
    </vehicle>
    <vehicle id="9" depart="27.00">
        <route edges="892892412#0 892892412#1 -1315841571#1 -1315841571#0 1315841570 374234836#5 374234836#6 374234836#0 -892888696 -1202701965#1"/>
    </vehicle>
    <vehicle id="10" depart="30.00">
        <route edges="892891837#2 892891820#0 892891818#3 892891818#4 -892891837#1 -892891836 -892674613#8 -892674613#7 892891813#0 892891813#1 892891813#2 892891813#3 892891813#4 892891813#5 -892192189#2 -892192189#1 892192188#0 892192188#1 892192187#0 892192187#1 892192187#2"/>
    </vehicle>
    <vehicle id="11" depart="33.00">
        <route edges="-892908397#0 892906875 -684405688#0 1281364193#1 1281364193#3 1281364193#4 1281364193#5 1281364193#6 1281364193#7 894542499#1 894542499#2 894542499#3 -372821887#2 -372821887#1 -892192199#0"/>
    </vehicle>
    <vehicle id="12" depart="36.00">
        <route edges="-372823726#1 -892915532 892888690#1 892888690#2 372823723#6 372823723#8 372823723#10 372823723#11 372823723#12 374234832#1 374234832#2 1281364193#3 -372937886#7 -372937886#6 -372937886#5 892249441#0 892249441#1 892249441#2 -372937872#2 -372937872#1 -372937872#0"/>
    </vehicle>
    <vehicle id="13" depart="39.00">
        <route edges="892996565#1 892996547#1 892996547#2 372822603#3 372937886#5 372937886#6 372937886#7 1281364193#4 -1281364194 1281358762#1 1281358763 1281362475#0 1281362475#1 226987816#2 226987816#3 226987816#4 226987816#5 374234836#3 374234836#4 374234836#5 374234836#6 374234836#0 374234836#1 374234832#0 -372823723#12 -372823723#11 892888693 372937855"/>
    </vehicle>
    <vehicle id="14" depart="42.00">
        <route edges="892891837#4 -892891837#4 -892891837#3 -892891837#2 -892891837#1 -892891836 -372822604#4 -372822604#3 -372822604#2 -372822604#1 -372822604#0 1281364193#7 1281365485 1316835744 372937873#0 -892257296#2 -892257296#1 892257297#0 892257297#1 892257299#2 892257299#3"/>
    </vehicle>
    <vehicle id="15" depart="45.00">
        <route edges="1316835822 226987816#0 226987816#1 226987816#2 374234832#3 374234832#4 374234832#5 225210793 894133935#0 894133935#1 894133935#2 894133935#3 894133935#4 894133935#5 894133935#6 894133935#7"/>
    </vehicle>
    <vehicle id="16" depart="48.00">
        <route edges="-892999552#3 892999552#3 892999552#4 892999552#5 892999552#6 892999552#7 892999552#8 372823723#0 372823723#2 372823723#4 372823723#6 372823723#8 372823723#10 372823723#11 372823723#12 374234832#1 374234832#2 374234832#3 226987816#2"/>
    </vehicle>
    <vehicle id="17" depart="51.00">
        <route edges="892996553#1 892996554#2 892891813#5 892996549 372822600 1281365485 1316835744 372937873#0 372937873#2 372937873#3 372937873#4 372937873#5 372937873#7 -372937882#6 892255096 372937871#0 372937871#1"/>
    </vehicle>
    <vehicle id="18" depart="54.00">
        <route edges="892999551 372823728#1 372823728#2 372823728#3 372823728#4 372823728#5 372823728#6 1202701962 374201283#1 374234836#0 374234836#1 374234836#2 374234836#3 892912528#0 892912528#1 892912528#2 892912528#5 372823725#3"/>
    </vehicle>
    <vehicle id="19" depart="57.00">
        <route edges="-892257299#3 -892257299#2 -892257299#1 -892257299#0 1281365483#9 372937873#0 1281364193#0 1281364193#1 226987816#3 226987816#4 -892912536#1 -892912536#0"/>
    </vehicle>
    <vehicle id="20" depart="60.00">
        <route edges="-372822597#5 -894103887#1 -894103887#0 894542513#4 894542513#5 894542513#6 894542513#7 894542513#8 894542513#9 1281358762#1 1281358763 1281362475#0 1281362475#1 226987816#2 226987816#3 226987816#4 226987816#5 374234836#3 374234836#4 374234836#5 374234836#6 374234836#0 -892888696 -372937874 -372823728#6 -372823728#5 -892888701#0"/>
    </vehicle>
    <vehicle id="21" depart="63.00">
        <route edges="-372937849#1 -372937849#0 372937849#0 372937849#1 372937849#2 372937849#3 372937849#4 372937849#5 372937849#6 226987816#0 226987816#1 226987816#2 1281364193#3 -372937886#7 -372937886#6 -372937886#5 -372822603#3 -892996547#2 -892996547#1 -892996547#0 -893206782#3 -893206782#1 -893206782#0 892891837#0 892891837#1 -892891837#1"/>
    </vehicle>
    <vehicle id="22" depart="66.00">
        <route edges="-892996562#0 892996556#1 892996556#2 892996550#2 -892891813#3 -892891813#2 -892891813#1 -892891813#0 892674613#7 892674613#8 892891836 892891837#1 892891837#2 892891837#3 892891837#4 892891837#5 892891837#6 892891837#7 892891837#8 -892999552#4 -892999552#3 -892999552#2 -892674603#0"/>
    </vehicle>
    <vehicle id="23" depart="69.00">
        <route edges="-892888695 892888694 372823723#12 374234832#1 374234832#2 1281364193#3 1281364193#4 -1281364194 -894542513#9 -894542513#8 -894542513#7 -894542513#6 -894542513#5 -372822599#1 -372822599#0 372821884#6 -894105446#2 894105447#0"/>
    </vehicle>
    <vehicle id="24" depart="72.00">
        <route edges="44506728#0 44506728#1 44506728#2 44506728#3 44506728#4 894542513#1 894542513#2 894542513#3 894542513#4 894542513#5 894542513#6 894542513#7 894542513#8 894542513#9 1281358762#1 1281358763 1281362475#0 1281362475#1 1281362476#1 1281362476#2 1281362476#3 1316835744 372937873#0 372937873#2 372937873#3 372937873#4 372937873#5 372937873#7 -372937882#6 892255096 372937881#4 372937863#0 372937863#1"/>
    </vehicle>
    <vehicle id="25" depart="75.00">
        <route edges="-44506728#2 44506728#2 44506728#3 44506728#4 894542513#1 894542513#2 894542513#3 894542513#4 894542513#5 894542513#6 894542513#7 894542513#8 894542513#9 1281358762#1 1281358763 1281362475#0 1281362475#1 1281362476#1 1281362476#2 1281362476#3 1316835744 372937873#0 -892257296#2 -892257296#1 892257297#0 892257297#1 892257299#2"/>
    </vehicle>
    <vehicle id="26" depart="78.00">
        <route edges="-374243043 374243075#2 374243075#3 374243075#4 374243075#5 372937866#1 372937866#2 372937866#3 1281365483#0 1281365483#1 1281365483#2 1281365483#3 1281365483#4 1281365483#5 1281365483#6 1281365483#7 1281365483#8 1281365483#9 372937873#0 1281364193#0 1281364193#1 374234832#3 374234832#4 374234832#5 684405678#0 372822596#0 372822596#1 372822596#2 -894104308#8 -894104311#0"/>
    </vehicle>
    <vehicle id="27" depart="81.00">
        <route edges="894212176#1 -892911490#2 892911490#2 894212175 684405684#2 1281365483#2 1281365483#3 1281365483#4 1281365483#5 1281365483#6 1281365483#7 1281365483#8 1281365483#9 372937873#0 372937873#2 372937873#3 372937873#4 372937873#5 372937873#7 372937873#8 -372937851#5 -372937867#3 372937857 372937882#3"/>
    </vehicle>
    <vehicle id="28" depart="84.00">
        <route edges="372821884#6 -372821884#6 -372821884#5 -1282441061 892192177#1"/>
    </vehicle>
    <vehicle id="29" depart="87.00">
        <route edges="892996558#0 -892996562#1 -892996562#0 892996556#1 892996556#2 892996550#2 -892891813#3 -892891813#2 -892891813#1 -892891813#0 892674613#7 892674613#8 892891836 892891837#1 -892891818#4 -892891818#3 -892891818#2 -892891818#1 -892891818#0 -892891817#2 372823723#0 1202701968 1202701969 1283838347 -372823728#3 892888699#1"/>
    </vehicle>
    <vehicle id="30" depart="90.00">
        <route edges="-892257300 -892257298#0 892257296#2 1281364193#0 1281364193#1 226987816#3 226987816#4 226987816#5 374234836#3 374234836#4 374234836#5 374234836#6 374234836#0 -892888696 -892888697 -892888692 -372823724#2 -372823724#1 -372823724#0 -1316073094 -1316073093#1"/>
    </vehicle>
    <vehicle id="31" depart="93.00">
        <route edges="-892891827 892891837#7 892891837#8 892999552#5 892999552#6 892999552#7 -892891829"/>
    </vehicle>
    <vehicle id="32" depart="96.00">
        <route edges="893217740 892996573#1 892996573#2 -892891815#5 -892891815#4 -892891815#3 892891813#2 892996550#0 -892996551#1 -892996551#0 -892996555#2 -892996555#1 -892996558#1"/>
    </vehicle>
    <vehicle id="33" depart="99.00">
        <route edges="684405684#2 1281365483#2 1281365483#3 1281365483#4 1281365483#5 1281365483#6 1281365483#7 1281365483#8 1281365483#9 372937873#0 1281364193#0 1281364193#1 374234832#3 374234832#4 374234832#5 684405678#0 684405678#1 684405678#2 684405678#3 -894104963#5 -894104963#4 -894104963#3 -894104969"/>
    </vehicle>
    <vehicle id="34" depart="102.00">
        <route edges="894104962#1 -894104962#1 -894104962#0 44506728#3 44506728#4 894542513#1 894542513#2 894542513#3 894542513#4 894542513#5 894542513#6 894542513#7 894542513#8 894542513#9 1281358762#1 1281358763 1281362475#0 1281362475#1 374234832#4 374234832#5 225210793 894133935#0 -894133938#7 -894133938#6 -894133938#5 -894133938#4 -894133938#3 -894133938#2 -894139103#1 -894139103#0"/>
    </vehicle>
    <vehicle id="35" depart="105.00">
        <route edges="-892888690#2 372823724#1 372823724#2 892888692 892888697 892888696 374234836#1 374234836#2 374234836#3 892912528#0 892912528#1 892912528#2 892912528#5 892912528#6 -892891046#1 -892891047#0"/>
    </vehicle>
    <vehicle id="36" depart="108.00">
        <route edges="372821887#2 894542499#4 894542498#1 894542498#2 894542498#3 1281358761 1281358762#0 1281358762#1 1281358763 1281362475#0 1281362475#1 226987816#2 226987816#3 226987816#4 226987816#5 374234836#3 374234836#4 374234836#5 374234836#6 374234836#0 -892888696 -892888697 -892888692 -372823724#2 -372823724#1 -372823724#0 -1316073094 -1316073093#1 -892891824"/>
    </vehicle>
    <vehicle id="37" depart="111.00">
        <route edges="372823728#0 372823728#1 372823728#2 372823728#3 372823728#4 372823728#5 372823728#6 1202701962 374201283#1 374234836#0 374234836#1 374234832#0 374234832#1 374234832#2 1281364193#3 1281364193#4 -1281364194 -894542513#9 -894542513#8 894101629#0 894101629#1"/>
    </vehicle>
    <vehicle id="38" depart="114.00">
        <route edges="-894104302 894104306#3 372822596#2 372822596#3 44506728#4 894542513#1 894542513#2 894542513#3 894542513#4 894542513#5 894542513#6 894542513#7 894542513#8 894542513#9 894542513#10 1281364193#5 1281364193#6 372822604#0 372822604#1 372822604#2 372822604#3 892891815#1 892891815#2 892891815#3 892891815#4 892891815#5 892891815#6 -892996574 -892674613#2"/>
    </vehicle>
    <vehicle id="39" depart="117.00">
        <route edges="894542513#4 894542513#5 894542513#6 894542513#7 894542513#8 894542513#9 894542513#10 1281364193#5 372822603#0 372822603#1 372822603#2 372822603#3 372937886#5 892249439#0 892249439#1 892249439#2 1282443560"/>
    </vehicle>
    <vehicle id="40" depart="120.00">
        <route edges="-372823724#2 892888691 372823723#8 372823723#10 372823723#11 372823723#12 374234832#1 374234832#2 1281364193#3 1281364193#4 1281364193#5 1281364193#6 1281364193#7 372822595 892192182#0 892192180#1 -372821884#1"/>
    </vehicle>
    <vehicle id="41" depart="123.00">
        <route edges="-372937851#3 -372937876#3 -372937876#2 -892259190 372937876#1"/>
    </vehicle>
    <vehicle id="42" depart="126.00">
        <route edges="-1336756355 -892192178#0 -892192176 1282441061 372821884#5 372821884#6 372821884#7 372821884#8 372821884#10 -894542513#0 -372822596#3 -894104308#8 -894104308#7 -894104312#0"/>
    </vehicle>
    <vehicle id="43" depart="129.00">
        <route edges="894542513#10 -1281364194 1281358762#1 1281358763 1281362475#0 1281362475#1 226987816#2 226987816#3 226987816#4 226987816#5 374234836#3 374234836#4 374234836#5 374234836#6 374234836#0 -892888696 -1202701965#1 -1202701965#0 1283839523"/>
    </vehicle>
    <vehicle id="44" depart="132.00">
        <route edges="-1251102199#1 -1251102199#0 1251102199#0 1251102199#1 1251102199#2 -372937850#5 -372937850#4 -372937850#3 -372937850#2 -372937850#1 -372937850#0 684405685#4 1281365483#4 1281365483#5 1281365483#6 1281365483#7 1281365483#8 1281365483#9 372937873#0 372937873#2 892255093#0 892255093#1"/>
    </vehicle>
    <vehicle id="45" depart="135.00">
        <route edges="892192189#1 892192189#2 892996549 372822600 1281365485 1316835744 372937873#0 372937873#2 372937873#3 372937873#4 372937873#5 372937873#7 372937873#8 1309212385"/>
    </vehicle>
    <vehicle id="46" depart="138.00">
        <route edges="-892888695 892888694 372823723#12 374234832#1 374234832#2 1281364193#3 -372937886#7 -372937886#6 -372937886#5 -372937886#3 -372937886#2 -372937886#1 -372937886#0 372937886#0"/>
    </vehicle>
    <vehicle id="47" depart="141.00">
        <route edges="-372937852 892888691 372823723#8 372823723#10 372823723#11 372823723#12 374234832#1 374234832#2 374234832#3 374234832#4 374234832#5 225210793 894133935#0 894133935#1 -894133935#1"/>
    </vehicle>
    <vehicle id="48" depart="144.00">
        <route edges="-894132695#3 -894132695#1 -894132687#2 -894132687#1 894132688#1 894132688#2 894132688#3"/>
    </vehicle>
    <vehicle id="49" depart="147.00">
        <route edges="893211189 -892891815#3 -892891813#1 -892891813#0 892674613#7 892674613#8 892891836 892891837#1 -892891818#4 -892891818#3 -892891818#2 -892891818#1 -892891818#0 -892891817#2 372823723#0 -892891825#1 -1316073093#1 -892891824"/>
    </vehicle>
    <vehicle id="50" depart="150.00">
        <route edges="894104313#0 894104308#6 894104308#7 894104308#8 372822596#3 44506728#4 894542513#1 894542513#2 894542513#3 894542513#4 894542513#5 894542513#6 894542513#7 894542513#8 894542513#9 894542513#10 1281364193#5 1281364193#6 1281364193#7 894542499#1 894542499#2 892192190 892192184#3 892192184#4 -892192189#1 892996553#0"/>
    </vehicle>
    <vehicle id="51" depart="153.00">
        <route edges="-892891815#5 -892891815#4 -892891815#3 892891813#2 892891813#3 892891813#4 892891813#5 892996549 372822600 1281365485 1316835744 372937873#0 372937873#2 372937873#3 372937873#4 372937873#5 372937873#7 372937873#8 -372937851#5 -372937851#4 -372937882#3 -372937882#2 -372937882#1 -372937882#0 372937882#0 372937882#1"/>
    </vehicle>
    <vehicle id="52" depart="156.00">
        <route edges="372937872#0 372937872#1 372937886#0 372937886#1 372937886#2 372937886#3 372937886#5 372937886#6 372937886#7 1281364193#4 1281364193#5 1281364193#6 1281364193#7 894542499#1 894542499#2 894542499#3 -372821887#2 -892192202 -892192188#2"/>
    </vehicle>
    <vehicle id="53" depart="159.00">
        <route edges="892888702#0 892888702#1 1202701969 1202701967 1202701965#0 1202701965#1 892888696 374234836#1 374234836#2 374234836#3 892912528#0 1315841571#0 1315841571#1 1315841571#2"/>
    </vehicle>
    <vehicle id="54" depart="162.00">
        <route edges="892891813#2 -892891813#2 -892891813#1 -892891813#0 892674613#7 892674613#8 892891836 892891837#1 -892891818#4 -892891818#3 -892891818#2 -892891818#1 -892891818#0 -892891817#2 372823723#0 1202701968 1283839524"/>
    </vehicle>
    <vehicle id="55" depart="165.00">
        <route edges="-1057795685 372937881#2 372937851#2 372937851#3 372937851#4 372937851#5 -372937873#8 -372937873#7 -372937873#5 -372937873#4 -372937873#3 -372937873#2 -372937873#0 1316835745 894542499#1 -372822601 -892192183 -892891813#5 -892891813#4 -892891813#3 -892891813#2 892891815#3 892891815#4 -892996568"/>
    </vehicle>
    <vehicle id="56" depart="168.00">
        <route edges="-1282441306 892192182#4 892192182#6 892192182#8 892192182#9 894101627#1 -894542513#6 -894542513#5 -894542513#4 -894542513#3 -894542513#2 -894542513#1 -894542513#0 -372822596#3 -894104308#8 -894104308#7 -894104308#6 -894104308#5 -894104308#4 -894104308#3 -894104308#2 -894104308#1 894104964#0"/>
    </vehicle>
    <vehicle id="57" depart="171.00">
        <route edges="894101628#2 1281358762#0 894542513#10 1281364193#5 1281364193#6 372822604#0 372822604#1 372822604#2 372822604#3 372822604#4 892891835"/>
    </vehicle>
    <vehicle id="58" depart="174.00">
        <route edges="-892891818#2 892891819 -892891837#3 -892891837#2 -892891837#1 -892891837#0 893206782#0 893206782#1 893206782#3 892996547#0 892996547#1 892996547#2 372822603#3 372937886#5 372937886#6 372937886#7 1281364193#4 -1281364194 -894542513#9 -894542513#8 -894542513#7 -894542513#6 -894542513#5 -372822597#5 -372822597#4 -372822597#3"/>
    </vehicle>
    <vehicle id="59" depart="177.00">
        <route edges="-372822604#3 -372822604#2 -372822604#1 -372822604#0 1281364193#7 1281365485 1316835744 372937873#0 1281364193#0"/>
    </vehicle>
    <vehicle id="60" depart="180.00">
        <route edges="892891041#0 372823728#2 372823728#3 372823728#4 372823728#5 372823728#6 1202701962 374201283#1 374234836#0 374234836#1 374234832#0 374234832#1 374234832#2 1281364193#3 1281364193#4 -1281364194 -894542513#9 -894542513#8 -894542513#7 -894542513#6 -894542513#5 -894542513#4 -894542513#3 -894542513#2 -894542513#1 -894542513#0 -44506728#3 -44506728#2 -44506728#1 -44506728#0"/>
    </vehicle>
    <vehicle id="61" depart="183.00">
        <route edges="-892888691 372823724#2 892888692 372823723#10 372823723#11 372823723#12 374234832#1 374234832#2 1281364193#3 1281364193#4 1281364193#5 1281364193#6 1281364193#7 894542499#1 894542499#2 892192190 892192184#3 892192184#4 -892192189#1 892996553#0 -892996555#4 -892996555#3 -892996555#2 -892996555#1 892996555#1"/>
    </vehicle>
    <vehicle id="62" depart="186.00">
        <route edges="-894104964#2 -894104964#1 -894104965#0 684405678#3 684405678#4 684405678#5 684405678#6 684405678#7 226987816#0 226987816#1 226987816#2 226987816#3 226987816#4 226987816#5 374234836#3 374234836#4 374234836#5 374234836#6 374234836#0 -892888696 -1202701965#1 -1202701965#0 -1202701967 -1202701969 -1202701968 -372823723#0 -892999552#8 -892999552#7 -892999552#6 -892999552#5 -892999552#4 -892674607#0"/>
    </vehicle>
    <vehicle id="63" depart="189.00">
        <route edges="1336756354 892192182#8 892192182#9 894101627#1 894542513#7 894542513#8 894542513#9 1281358762#1 1281358763 1281362475#0 1281362475#1 1281362476#1 1281362476#2 1281362476#3 1316835744 372937873#0 -892257296#2 -892257296#1 892257297#0 892257297#1 892257299#2 892257299#3"/>
    </vehicle>
    <vehicle id="64" depart="192.00">
        <route edges="-892196616#1 892196617 894542498#2 894542498#3 -372822600 -892996549 -892891813#5 -892891813#4 -892996550#2 -892996556#2 -892996557"/>
    </vehicle>
    <vehicle id="65" depart="195.00">
        <route edges="894542499#4 894542498#1 894542498#2 894542498#3 1281358761 1281358762#0 1281358762#1 1281358763 1281362475#0 1281362475#1 226987816#2 226987816#3 226987816#4 226987816#5 374234836#3 374234836#4 374234836#5 374234836#6 374234836#0 -892888696 -372937874 1202701962 374201283#1"/>
    </vehicle>
    <vehicle id="66" depart="198.00">
        <route edges="-372937859#0 372937867#2 372937867#3 372937851#5 -372937873#8 -372937873#7 -372937873#5 -372937873#4 -372937873#3 -372937873#2 1281364193#0 1281364193#1 226987816#3 226987816#4 226987816#5 374234836#3 374234836#4 374234836#5 374234836#6 374234836#0 -892888696 -1202701965#1 -1202701965#0 -1202701964 -892888690#2 -892888690#1 -892888690#0"/>
    </vehicle>
    <vehicle id="67" depart="201.00">
        <route edges="-892906876 -684405688#1 -684405688#0 1281364193#1 374234832#3 1281362476#1 1281362476#2 1281362476#3 684405685#0 684405685#1 684405685#2 684405685#3 372937850#0 372937850#1 372937850#2 372937850#3 372937850#4 372937849#0 372937849#1 372937849#2 372937849#3 372937849#4 372937849#5"/>
    </vehicle>
    <vehicle id="68" depart="204.00">
        <route edges="-892257302#1 892255097#2 -892257299#2 -892257299#1 -892257299#0 1281365483#9 1316835745 894542499#1 -372822601 -892192183 -892891813#5 -892891813#4 -892891813#3 -892891813#2 -892891813#1 -892891813#0 -892674613#6 -892674613#5 -892674613#4"/>
    </vehicle>
    <vehicle id="69" depart="207.00">
        <route edges="-372821884#2 -372821884#1 -892192181 -372822595 -372822600 -892925371#1 -892925371#0 372822603#1 372822603#2 372822603#3 -372937886#3 -372937879#4 372937879#4"/>
    </vehicle>
    <vehicle id="70" depart="210.00">
        <route edges="-892257300 -892257298#0 892257296#2 1281364193#0 1281364193#1 1281364193#3 1281364193#4 -1281364194 -894542513#9 -894542513#8 -894542513#7 -894542513#6 -894542513#5 -894542513#4 -894542513#3 -894542513#2 -894542513#1 -372821884#10 -894103891#1 894103890#1"/>
    </vehicle>
    <vehicle id="71" depart="213.00">
        <route edges="892996573#2 -892891815#5 -892891815#4 -892891815#3 -892891813#1 -892891813#0 892674613#7 892674613#8 892891836 892891837#1 -892891818#4 -892891818#3 -892891818#2 -892891818#1 -892891818#0 -892891817#2 372823723#0 372823723#2 372823723#4 372823723#6 372823723#8 372823723#10 892888693 -372823724#3"/>
    </vehicle>
    <vehicle id="72" depart="216.00">
        <route edges="-892257305 -374243048#2 -892257304#0 1281365483#6 1281365483#7 1281365483#8 1281365483#9 -1316835744 684405685#0 684405685#1 684405685#2 684405685#3 684405685#4 -892257307#1 372937880#2 372937880#3 372937880#4 1336691486 684405684#2"/>
    </vehicle>
    <vehicle id="73" depart="219.00">
        <route edges="-892249444#3 -892249444#2 -892249444#1 -892249444#0 372937886#7 1281364193#4 -1281364194 1281358762#1 1281358763 1281362475#0 1281362475#1 1281362476#1 1281362476#2 1281362476#3 1316835744 372937873#0 372937873#2 372937873#3 372937873#4 372937873#5 892255097#0 892255097#1 892255097#2 892255097#3 684405687#1 -684405687#1"/>
    </vehicle>
    <vehicle id="74" depart="222.00">
        <route edges="892891837#5 892891837#6 892891837#7 892891837#8 892999552#5 892999552#6 892999552#7 892999552#8 372823723#0 372823723#2 372823723#4 372823723#6 372823723#8 372823723#10 372823723#11 372823723#12 374234832#1 374234832#2 374234832#3 1281362476#1 1281362476#2 1281362476#3 1316835744 372937873#0 372937873#2 372937873#3 372937873#4 372937873#5 372937873#7 372937873#8 -372937851#5 -372937867#3 -372937867#2 -372937867#1 892259189 -892259188#0"/>
    </vehicle>
    <vehicle id="75" depart="225.00">
        <route edges="-894104964#2 -894104964#1 -894104964#0 894104308#1 894104308#2 894104308#3 894104308#4 894104308#5 894104308#6 894104308#7 894104308#8 372822596#3 44506728#4 894542513#1 894542513#2 894542513#3 894542513#4 894542513#5 894542513#6 -894542513#6"/>
    </vehicle>
    <vehicle id="76" depart="228.00">
        <route edges="892259196 -372937881#4 -892255096 372937882#6 -372937873#7 -372937873#5 -372937873#4 -372937873#3 -372937873#2 -372937873#0 -1316835744 684405685#0 684405685#1 684405685#2 684405685#3 684405685#4 684405685#5 684405685#6"/>
    </vehicle>
    <vehicle id="77" depart="231.00">
        <route edges="894139105 892192182#8 892192182#9 894101627#1 894542513#7 894542513#8 894542513#9 894542513#10 1281364193#5 372822603#0 372822603#1 372822603#2 372822603#3 892249441#0 892249441#1 892249441#2 -372937872#2 -372937872#1"/>
    </vehicle>
    <vehicle id="78" depart="234.00">
        <route edges="-894104306#1 -894104306#0 -1336758319 684405678#2 684405678#3 684405678#4 684405678#5 684405678#6 684405678#7 226987816#0 226987816#1 226987816#2 226987816#3 226987816#4 226987816#5 374234836#3 374234836#4 374234836#5 374234836#6 374234836#0 -892888696 -1202701965#1 -1202701965#0 -1202701967 -1202701969 -1202701968 -372823723#0 -892999552#8"/>
    </vehicle>
    <vehicle id="79" depart="237.00">
        <route edges="892999551 372823728#1 372823728#2 372823728#3 372823728#4 372823728#5 372823728#6 1202701962 374201283#1 374234836#0 374234836#1 374234836#2 374234836#3 892912528#0 892912528#1 892912528#2 892912528#5 892912528#6 -892891046#1 -892891047#0"/>
    </vehicle>
    <vehicle id="80" depart="240.00">
        <route edges="-892192184#0 892192189#1 892192189#2 892996549 372822600 1281358761 1281358762#0 1281358762#1 1281358763 1281362475#0 1281362475#1 374234832#4 374234832#5 225210793 894133935#0 894133935#1 -894133939#0"/>
    </vehicle>
    <vehicle id="81" depart="243.00">
        <route edges="-894104964#1 -894104964#0 894104308#1 894104308#2 894104308#3 894104308#4 894104308#5 894104308#6 894104308#7 894104308#8 372822596#3 44506728#4 894542513#1 894542513#2 894542513#3 894542513#4 894542513#5 894542513#6 894542513#7 894542513#8 894542513#9 894542513#10 1281364193#5 372822603#0 372822603#1 892996546 -892996547#1 -892996547#0 -893206782#3 -893206782#1 -893206782#0 892891837#0 892891837#1 892891837#2 -892891837#2"/>
    </vehicle>
    <vehicle id="82" depart="246.00">
        <route edges="-892259195#1 -372937864#1 -372937864#0 -372937871#0 -892255096 372937882#6 -372937873#7 -372937873#5 -372937873#4 -372937873#3 -372937873#2 1281364193#0 1281364193#1 1281364193#3 1281364193#4 -1281364194 -894542513#9 -894542513#8 -894542513#7 -894542513#6 -894542513#5 -894542513#4 -894542513#3 -894542513#2 -894542513#1 -894542513#0 -44506728#3 894104962#0"/>
    </vehicle>
    <vehicle id="83" depart="249.00">
        <route edges="894542513#8 894542513#9 894542513#10 1281364193#5 372822603#0 372822603#1 892996546 -892996547#1 -892996547#0 -893206782#3 -893206782#1 -893206782#0 892891837#0 892891837#1 892891837#2 892891837#3 892891837#4 892891837#5 892891837#6 892891837#7"/>
    </vehicle>
    <vehicle id="84" depart="252.00">
        <route edges="892996566 892996565#1 892996547#1 892996547#2 372822603#3 892249441#0 892249440#2 -892249444#0"/>
    </vehicle>
    <vehicle id="85" depart="255.00">
        <route edges="1057795684 372937881#1 372937881#2 372937851#2 372937851#3 372937851#4 372937851#5 -372937873#8 -372937873#7 -372937873#5 -372937873#4 -372937873#3 -372937873#2 1281364193#0 1281364193#1 226987816#3 226987816#4 226987816#5 374234836#3 374234836#4 374234836#5 374234836#6 374234836#0 -892888696 -1202701965#1 -1202701965#0 -1202701967 -1202701969 -1202701968 -372823723#0 -892999552#8 -892999552#7 -892999552#6 -892999552#5 -892999552#4 -892674607#0"/>
    </vehicle>
    <vehicle id="86" depart="258.00">
        <route edges="-894104305#1 894104306#2 894104306#3 372822596#2 372822596#3 44506728#4 894542513#1 894542513#2 894542513#3 894542513#4 -372822597#5 -372822597#4"/>
    </vehicle>
    <vehicle id="87" depart="261.00">